<?xml version="1.0" encoding="UTF-8"?>

<!-- generated on Sat Dec 31 10:59:27 2016 by SUMO netconvert Version 0.23.0
<?xml version="1.0" encoding="UTF-8"?>

<configuration xmlns:xsi="http://www.w3.org/2001/XMLSchema-instance" xsi:noNamespaceSchemaLocation="http://sumo.dlr.de/xsd/netconvertConfiguration.xsd">

    <input>
        <node-files value="test4.nod.xml"/>
        <edge-files value="test4.edg.xml"/>
    </input>

    <output>
        <output-file value="test4.net.xml"/>
    </output>

    <projection>
        <proj.utm value="true"/>
    </projection>

</configuration>
-->

<net version="0.13" xmlns:xsi="http://www.w3.org/2001/XMLSchema-instance" xsi:noNamespaceSchemaLocation="http://sumo.dlr.de/xsd/net_file.xsd">

    <location netOffset="-422153.09,499.83" convBoundary="0.00,0.00,1999.31,999.66" origBoundary="116.300427,-0.004522,116.318393,0.004522" projParameter="+proj=utm +zone=50 +ellps=WGS84 +datum=WGS84 +units=m +no_defs"/>

    <edge id=":1_0" function="internal">
        <lane id=":1_0_0" index="0" speed="30.00" length="2.58" shape="1.65,996.41 1.75,997.11 2.05,997.61 2.55,997.91 3.25,998.01"/>
    </edge>
    <edge id=":10_0" function="internal">
        <lane id=":10_0_0" index="0" speed="30.00" length="0.10" shape="499.83,1.65 499.83,1.65"/>
    </edge>
    <edge id=":11_0" function="internal">
        <lane id=":11_0_0" index="0" speed="30.00" length="2.58" shape="3.25,1.65 2.55,1.75 2.05,2.05 1.75,2.55 1.65,3.25"/>
    </edge>
    <edge id=":12_0" function="internal">
        <lane id=":12_0_0" index="0" speed="30.00" length="0.10" shape="1.65,499.83 1.65,499.83"/>
    </edge>
    <edge id=":16_0" function="internal">
        <lane id=":16_0_0" index="0" speed="50.00" length="2.58" shape="201.58,796.48 201.68,797.18 201.98,797.68 202.48,797.98 203.18,798.08"/>
    </edge>
    <edge id=":17_0" function="internal">
        <lane id=":17_0_0" index="0" speed="50.00" length="2.58" shape="596.54,798.08 597.24,797.98 597.74,797.68 598.04,797.18 598.14,796.48"/>
    </edge>
    <edge id=":18_0" function="internal">
        <lane id=":18_0_0" index="0" speed="50.00" length="2.58" shape="598.14,203.18 598.04,202.48 597.74,201.98 597.24,201.68 596.54,201.58"/>
    </edge>
    <edge id=":19_0" function="internal">
        <lane id=":19_0_0" index="0" speed="50.00" length="2.58" shape="203.18,201.58 202.48,201.68 201.98,201.98 201.68,202.48 201.58,203.18"/>
    </edge>
    <edge id=":2_0" function="internal">
        <lane id=":2_0_0" index="0" speed="30.00" length="0.10" shape="499.83,998.01 499.83,998.01"/>
    </edge>
    <edge id=":20_0" function="internal">
        <lane id=":20_0_0" index="0" speed="50.00" length="2.58" shape="701.41,796.48 701.51,797.18 701.81,797.68 702.31,797.98 703.01,798.08"/>
    </edge>
    <edge id=":21_0" function="internal">
        <lane id=":21_0_0" index="0" speed="50.00" length="2.58" shape="1296.30,798.08 1297.00,797.98 1297.50,797.68 1297.80,797.18 1297.90,796.48"/>
    </edge>
    <edge id=":22_0" function="internal">
        <lane id=":22_0_0" index="0" speed="50.00" length="2.58" shape="1297.90,203.18 1297.80,202.48 1297.50,201.98 1297.00,201.68 1296.30,201.58"/>
    </edge>
    <edge id=":23_0" function="internal">
        <lane id=":23_0_0" index="0" speed="50.00" length="2.58" shape="703.01,201.58 702.31,201.68 701.81,201.98 701.51,202.48 701.41,203.18"/>
    </edge>
    <edge id=":24_0" function="internal">
        <lane id=":24_0_0" index="0" speed="50.00" length="2.58" shape="1401.17,796.48 1401.27,797.18 1401.57,797.68 1402.07,797.98 1402.77,798.08"/>
    </edge>
    <edge id=":25_0" function="internal">
        <lane id=":25_0_0" index="0" speed="50.00" length="2.58" shape="1796.13,798.08 1796.83,797.98 1797.33,797.68 1797.63,797.18 1797.73,796.48"/>
    </edge>
    <edge id=":26_0" function="internal">
        <lane id=":26_0_0" index="0" speed="50.00" length="2.58" shape="1797.73,203.18 1797.63,202.48 1797.33,201.98 1796.83,201.68 1796.13,201.58"/>
    </edge>
    <edge id=":27_0" function="internal">
        <lane id=":27_0_0" index="0" speed="50.00" length="2.58" shape="1402.77,201.58 1402.07,201.68 1401.57,201.98 1401.27,202.48 1401.17,203.18"/>
    </edge>
    <edge id=":3_0" function="internal">
        <lane id=":3_0_0" index="0" speed="30.00" length="0.10" shape="999.66,998.01 999.66,998.01"/>
    </edge>
    <edge id=":4_0" function="internal">
        <lane id=":4_0_0" index="0" speed="30.00" length="0.10" shape="1499.49,998.01 1499.49,998.01"/>
    </edge>
    <edge id=":5_0" function="internal">
        <lane id=":5_0_0" index="0" speed="30.00" length="2.58" shape="1996.06,998.01 1996.76,997.91 1997.26,997.61 1997.56,997.11 1997.66,996.41"/>
    </edge>
    <edge id=":6_0" function="internal">
        <lane id=":6_0_0" index="0" speed="30.00" length="0.10" shape="1997.66,499.83 1997.66,499.83"/>
    </edge>
    <edge id=":7_0" function="internal">
        <lane id=":7_0_0" index="0" speed="30.00" length="2.58" shape="1997.66,3.25 1997.56,2.55 1997.26,2.05 1996.76,1.75 1996.06,1.65"/>
    </edge>
    <edge id=":8_0" function="internal">
        <lane id=":8_0_0" index="0" speed="30.00" length="0.10" shape="1499.49,1.65 1499.49,1.65"/>
    </edge>
    <edge id=":9_0" function="internal">
        <lane id=":9_0_0" index="0" speed="30.00" length="0.10" shape="999.66,1.65 999.66,1.65"/>
    </edge>

    <edge id="1-2" from="1" to="2" priority="75">
        <lane id="1-2_0" index="0" speed="30.00" length="496.58" shape="3.25,998.01 499.83,998.01"/>
    </edge>
    <edge id="10-11" from="10" to="11" priority="75">
        <lane id="10-11_0" index="0" speed="30.00" length="496.58" shape="499.83,1.65 3.25,1.65"/>
    </edge>
    <edge id="11-12" from="11" to="12" priority="75">
        <lane id="11-12_0" index="0" speed="30.00" length="496.58" shape="1.65,3.25 1.65,499.83"/>
    </edge>
    <edge id="12-1" from="12" to="1" priority="75">
        <lane id="12-1_0" index="0" speed="30.00" length="496.58" shape="1.65,499.83 1.65,996.41"/>
    </edge>
    <edge id="16-17" from="16" to="17" priority="75">
        <lane id="16-17_0" index="0" speed="50.00" length="393.36" shape="203.18,798.08 596.54,798.08"/>
    </edge>
    <edge id="17-18" from="17" to="18" priority="75">
        <lane id="17-18_0" index="0" speed="50.00" length="593.29" shape="598.14,796.48 598.14,203.18"/>
    </edge>
    <edge id="18-19" from="18" to="19" priority="75">
        <lane id="18-19_0" index="0" speed="50.00" length="393.36" shape="596.54,201.58 203.18,201.58"/>
    </edge>
    <edge id="19-16" from="19" to="16" priority="75">
        <lane id="19-16_0" index="0" speed="50.00" length="593.29" shape="201.58,203.18 201.58,796.48"/>
    </edge>
    <edge id="2-3" from="2" to="3" priority="75">
        <lane id="2-3_0" index="0" speed="30.00" length="499.83" shape="499.83,998.01 999.66,998.01"/>
    </edge>
    <edge id="20-21" from="20" to="21" priority="75">
        <lane id="20-21_0" index="0" speed="50.00" length="593.29" shape="703.01,798.08 1296.30,798.08"/>
    </edge>
    <edge id="21-22" from="21" to="22" priority="75">
        <lane id="21-22_0" index="0" speed="50.00" length="593.29" shape="1297.90,796.48 1297.90,203.18"/>
    </edge>
    <edge id="22-23" from="22" to="23" priority="75">
        <lane id="22-23_0" index="0" speed="50.00" length="593.29" shape="1296.30,201.58 703.01,201.58"/>
    </edge>
    <edge id="23-20" from="23" to="20" priority="75">
        <lane id="23-20_0" index="0" speed="50.00" length="593.29" shape="701.41,203.18 701.41,796.48"/>
    </edge>
    <edge id="24-25" from="24" to="25" priority="75">
        <lane id="24-25_0" index="0" speed="50.00" length="393.36" shape="1402.77,798.08 1796.13,798.08"/>
    </edge>
    <edge id="25-26" from="25" to="26" priority="75">
        <lane id="25-26_0" index="0" speed="50.00" length="593.29" shape="1797.73,796.48 1797.73,203.18"/>
    </edge>
    <edge id="26-27" from="26" to="27" priority="75">
        <lane id="26-27_0" index="0" speed="50.00" length="393.36" shape="1796.13,201.58 1402.77,201.58"/>
    </edge>
    <edge id="27-24" from="27" to="24" priority="75">
        <lane id="27-24_0" index="0" speed="50.00" length="593.29" shape="1401.17,203.18 1401.17,796.48"/>
    </edge>
    <edge id="3-4" from="3" to="4" priority="75">
        <lane id="3-4_0" index="0" speed="30.00" length="499.83" shape="999.66,998.01 1499.49,998.01"/>
    </edge>
    <edge id="4-5" from="4" to="5" priority="75">
        <lane id="4-5_0" index="0" speed="30.00" length="496.58" shape="1499.49,998.01 1996.06,998.01"/>
    </edge>
    <edge id="5-6" from="5" to="6" priority="75">
        <lane id="5-6_0" index="0" speed="30.00" length="496.58" shape="1997.66,996.41 1997.66,499.83"/>
    </edge>
    <edge id="6-7" from="6" to="7" priority="75">
        <lane id="6-7_0" index="0" speed="30.00" length="496.58" shape="1997.66,499.83 1997.66,3.25"/>
    </edge>
    <edge id="7-8" from="7" to="8" priority="75">
        <lane id="7-8_0" index="0" speed="30.00" length="496.58" shape="1996.06,1.65 1499.49,1.65"/>
    </edge>
    <edge id="8-9" from="8" to="9" priority="75">
        <lane id="8-9_0" index="0" speed="30.00" length="499.83" shape="1499.49,1.65 999.66,1.65"/>
    </edge>
    <edge id="9-10" from="9" to="10" priority="75">
        <lane id="9-10_0" index="0" speed="30.00" length="499.83" shape="999.66,1.65 499.83,1.65"/>
    </edge>

    <junction id="1" type="priority" x="0.00" y="999.66" incLanes="12-1_0" intLanes=":1_0_0" shape="3.25,999.61 3.25,996.41 0.05,996.41">
        <request index="0" response="0" foes="0" cont="0"/>
    </junction>
    <junction id="10" type="priority" x="499.83" y="0.00" incLanes="9-10_0" intLanes=":10_0_0" shape="499.83,3.25 499.83,0.05 499.83,3.25">
        <request index="0" response="0" foes="0" cont="0"/>
    </junction>
    <junction id="11" type="priority" x="0.00" y="0.00" incLanes="10-11_0" intLanes=":11_0_0" shape="0.05,3.25 3.25,3.25 3.25,0.05">
        <request index="0" response="0" foes="0" cont="0"/>
    </junction>
    <junction id="12" type="priority" x="0.00" y="499.83" incLanes="11-12_0" intLanes=":12_0_0" shape="0.05,499.83 3.25,499.83 0.05,499.83">
        <request index="0" response="0" foes="0" cont="0"/>
    </junction>
    <junction id="16" type="priority" x="199.93" y="799.73" incLanes="19-16_0" intLanes=":16_0_0" shape="203.18,799.68 203.18,796.48 199.98,796.48">
        <request index="0" response="0" foes="0" cont="0"/>
    </junction>
    <junction id="17" type="priority" x="599.79" y="799.73" incLanes="16-17_0" intLanes=":17_0_0" shape="599.74,796.48 596.54,796.48 596.54,799.68">
        <request index="0" response="0" foes="0" cont="0"/>
    </junction>
    <junction id="18" type="priority" x="599.79" y="199.93" incLanes="17-18_0" intLanes=":18_0_0" shape="596.54,203.18 599.74,203.18 596.54,199.98 596.54,203.18">
        <request index="0" response="0" foes="0" cont="0"/>
    </junction>
    <junction id="19" type="priority" x="199.93" y="199.93" incLanes="18-19_0" intLanes=":19_0_0" shape="199.98,203.18 203.18,203.18 203.18,199.98">
        <request index="0" response="0" foes="0" cont="0"/>
    </junction>
    <junction id="2" type="priority" x="499.83" y="999.66" incLanes="1-2_0" intLanes=":2_0_0" shape="499.83,999.61 499.83,996.41 499.83,999.61">
        <request index="0" response="0" foes="0" cont="0"/>
    </junction>
    <junction id="20" type="priority" x="699.76" y="799.73" incLanes="23-20_0" intLanes=":20_0_0" shape="703.01,799.68 703.01,796.48 699.81,796.48">
        <request index="0" response="0" foes="0" cont="0"/>
    </junction>
    <junction id="21" type="priority" x="1299.55" y="799.73" incLanes="20-21_0" intLanes=":21_0_0" shape="1299.50,796.48 1296.30,796.48 1296.30,799.68">
        <request index="0" response="0" foes="0" cont="0"/>
    </junction>
    <junction id="22" type="priority" x="1299.55" y="199.93" incLanes="21-22_0" intLanes=":22_0_0" shape="1296.30,203.18 1299.50,203.18 1296.30,199.98 1296.30,203.18">
        <request index="0" response="0" foes="0" cont="0"/>
    </junction>
    <junction id="23" type="priority" x="699.76" y="199.93" incLanes="22-23_0" intLanes=":23_0_0" shape="699.81,203.18 703.01,203.18 703.01,199.98">
        <request index="0" response="0" foes="0" cont="0"/>
    </junction>
    <junction id="24" type="priority" x="1399.52" y="799.73" incLanes="27-24_0" intLanes=":24_0_0" shape="1402.77,799.68 1402.77,796.48 1399.57,796.48">
        <request index="0" response="0" foes="0" cont="0"/>
    </junction>
    <junction id="25" type="priority" x="1799.38" y="799.73" incLanes="24-25_0" intLanes=":25_0_0" shape="1799.33,796.48 1796.13,796.48 1796.13,799.68">
        <request index="0" response="0" foes="0" cont="0"/>
    </junction>
    <junction id="26" type="priority" x="1799.38" y="199.93" incLanes="25-26_0" intLanes=":26_0_0" shape="1796.13,203.18 1799.33,203.18 1796.13,199.98 1796.13,203.18">
        <request index="0" response="0" foes="0" cont="0"/>
    </junction>
    <junction id="27" type="priority" x="1399.52" y="199.93" incLanes="26-27_0" intLanes=":27_0_0" shape="1399.57,203.18 1402.77,203.18 1402.77,199.98">
        <request index="0" response="0" foes="0" cont="0"/>
    </junction>
    <junction id="3" type="priority" x="999.66" y="999.66" incLanes="2-3_0" intLanes=":3_0_0" shape="999.66,999.61 999.66,996.41 999.66,999.61">
        <request index="0" response="0" foes="0" cont="0"/>
    </junction>
    <junction id="4" type="priority" x="1499.49" y="999.66" incLanes="3-4_0" intLanes=":4_0_0" shape="1499.49,999.61 1499.49,996.41 1499.49,999.61">
        <request index="0" response="0" foes="0" cont="0"/>
    </junction>
    <junction id="5" type="priority" x="1999.31" y="999.66" incLanes="4-5_0" intLanes=":5_0_0" shape="1999.26,996.41 1996.06,996.41 1996.06,999.61">
        <request index="0" response="0" foes="0" cont="0"/>
    </junction>
    <junction id="6" type="priority" x="1999.31" y="499.83" incLanes="5-6_0" intLanes=":6_0_0" shape="1996.06,499.83 1999.26,499.83 1996.06,499.83">
        <request index="0" response="0" foes="0" cont="0"/>
    </junction>
    <junction id="7" type="priority" x="1999.31" y="0.00" incLanes="6-7_0" intLanes=":7_0_0" shape="1996.06,3.25 1999.26,3.25 1996.06,0.05 1996.06,3.25">
        <request index="0" response="0" foes="0" cont="0"/>
    </junction>
    <junction id="8" type="priority" x="1499.49" y="0.00" incLanes="7-8_0" intLanes=":8_0_0" shape="1499.49,3.25 1499.49,0.05 1499.49,3.25">
        <request index="0" response="0" foes="0" cont="0"/>
    </junction>
    <junction id="9" type="priority" x="999.66" y="0.00" incLanes="8-9_0" intLanes=":9_0_0" shape="999.66,3.25 999.66,0.05 999.66,3.25">
        <request index="0" response="0" foes="0" cont="0"/>
    </junction>

    <connection from="1-2" to="2-3" fromLane="0" toLane="0" via=":2_0_0" dir="s" state="M"/>
    <connection from="10-11" to="11-12" fromLane="0" toLane="0" via=":11_0_0" dir="r" state="M"/>
    <connection from="11-12" to="12-1" fromLane="0" toLane="0" via=":12_0_0" dir="s" state="M"/>
    <connection from="12-1" to="1-2" fromLane="0" toLane="0" via=":1_0_0" dir="r" state="M"/>
    <connection from="16-17" to="17-18" fromLane="0" toLane="0" via=":17_0_0" dir="r" state="M"/>
    <connection from="17-18" to="18-19" fromLane="0" toLane="0" via=":18_0_0" dir="r" state="M"/>
    <connection from="18-19" to="19-16" fromLane="0" toLane="0" via=":19_0_0" dir="r" state="M"/>
    <connection from="19-16" to="16-17" fromLane="0" toLane="0" via=":16_0_0" dir="r" state="M"/>
    <connection from="2-3" to="3-4" fromLane="0" toLane="0" via=":3_0_0" dir="s" state="M"/>
    <connection from="20-21" to="21-22" fromLane="0" toLane="0" via=":21_0_0" dir="r" state="M"/>
    <connection from="21-22" to="22-23" fromLane="0" toLane="0" via=":22_0_0" dir="r" state="M"/>
    <connection from="22-23" to="23-20" fromLane="0" toLane="0" via=":23_0_0" dir="r" state="M"/>
    <connection from="23-20" to="20-21" fromLane="0" toLane="0" via=":20_0_0" dir="r" state="M"/>
    <connection from="24-25" to="25-26" fromLane="0" toLane="0" via=":25_0_0" dir="r" state="M"/>
    <connection from="25-26" to="26-27" fromLane="0" toLane="0" via=":26_0_0" dir="r" state="M"/>
    <connection from="26-27" to="27-24" fromLane="0" toLane="0" via=":27_0_0" dir="r" state="M"/>
    <connection from="27-24" to="24-25" fromLane="0" toLane="0" via=":24_0_0" dir="r" state="M"/>
    <connection from="3-4" to="4-5" fromLane="0" toLane="0" via=":4_0_0" dir="s" state="M"/>
    <connection from="4-5" to="5-6" fromLane="0" toLane="0" via=":5_0_0" dir="r" state="M"/>
    <connection from="5-6" to="6-7" fromLane="0" toLane="0" via=":6_0_0" dir="s" state="M"/>
    <connection from="6-7" to="7-8" fromLane="0" toLane="0" via=":7_0_0" dir="r" state="M"/>
    <connection from="7-8" to="8-9" fromLane="0" toLane="0" via=":8_0_0" dir="s" state="M"/>
    <connection from="8-9" to="9-10" fromLane="0" toLane="0" via=":9_0_0" dir="s" state="M"/>
    <connection from="9-10" to="10-11" fromLane="0" toLane="0" via=":10_0_0" dir="s" state="M"/>

    <connection from=":1_0" to="1-2" fromLane="0" toLane="0" dir="s" state="M"/>
    <connection from=":10_0" to="10-11" fromLane="0" toLane="0" dir="s" state="M"/>
    <connection from=":11_0" to="11-12" fromLane="0" toLane="0" dir="s" state="M"/>
    <connection from=":12_0" to="12-1" fromLane="0" toLane="0" dir="s" state="M"/>
    <connection from=":16_0" to="16-17" fromLane="0" toLane="0" dir="s" state="M"/>
    <connection from=":17_0" to="17-18" fromLane="0" toLane="0" dir="s" state="M"/>
    <connection from=":18_0" to="18-19" fromLane="0" toLane="0" dir="s" state="M"/>
    <connection from=":19_0" to="19-16" fromLane="0" toLane="0" dir="s" state="M"/>
    <connection from=":2_0" to="2-3" fromLane="0" toLane="0" dir="s" state="M"/>
    <connection from=":20_0" to="20-21" fromLane="0" toLane="0" dir="s" state="M"/>
    <connection from=":21_0" to="21-22" fromLane="0" toLane="0" dir="s" state="M"/>
    <connection from=":22_0" to="22-23" fromLane="0" toLane="0" dir="s" state="M"/>
    <connection from=":23_0" to="23-20" fromLane="0" toLane="0" dir="s" state="M"/>
    <connection from=":24_0" to="24-25" fromLane="0" toLane="0" dir="s" state="M"/>
    <connection from=":25_0" to="25-26" fromLane="0" toLane="0" dir="s" state="M"/>
    <connection from=":26_0" to="26-27" fromLane="0" toLane="0" dir="s" state="M"/>
    <connection from=":27_0" to="27-24" fromLane="0" toLane="0" dir="s" state="M"/>
    <connection from=":3_0" to="3-4" fromLane="0" toLane="0" dir="s" state="M"/>
    <connection from=":4_0" to="4-5" fromLane="0" toLane="0" dir="s" state="M"/>
    <connection from=":5_0" to="5-6" fromLane="0" toLane="0" dir="s" state="M"/>
    <connection from=":6_0" to="6-7" fromLane="0" toLane="0" dir="s" state="M"/>
    <connection from=":7_0" to="7-8" fromLane="0" toLane="0" dir="s" state="M"/>
    <connection from=":8_0" to="8-9" fromLane="0" toLane="0" dir="s" state="M"/>
    <connection from=":9_0" to="9-10" fromLane="0" toLane="0" dir="s" state="M"/>

</net>
