<flows>
	<flow id="flowA" from="47-48" to="50-47" begin="0" end="7000" number="50"/>

</flows>
