<flows>
	<flow id="flowA" from="16-17" to="19-16" begin="0" end="7000" number="135"/>
	<flow id="flowB" from="20-21" to="23-20" begin="0" end="7000" number="115"/>
	<flow id="flowC" from="24-25" to="27-24" begin="0" end="7000" number="135"/>

</flows>
