<?xml version="1.0" encoding="UTF-8"?>

<!-- generated on Fri Dec 30 17:42:21 2016 by SUMO duarouter Version 0.23.0
<?xml version="1.0" encoding="UTF-8"?>

<configuration xmlns:xsi="http://www.w3.org/2001/XMLSchema-instance" xsi:noNamespaceSchemaLocation="http://sumo.dlr.de/xsd/duarouterConfiguration.xsd">

    <input>
        <net-file value="test2.net.xml"/>
        <flow-files value="test2.flow.xml"/>
    </input>

    <output>
        <output-file value="test2.rou.xml"/>
    </output>

</configuration>
-->

<routes xmlns:xsi="http://www.w3.org/2001/XMLSchema-instance" xsi:noNamespaceSchemaLocation="http://sumo.dlr.de/xsd/routes_file.xsd">
    <vehicle id="flowA.0" depart="0.00">
        <route edges="17-19 19-13 13-20 20-17"/>
    </vehicle>
    <vehicle id="flowA.1" depart="35.00">
        <route edges="17-19 19-13 13-20 20-17"/>
    </vehicle>
    <vehicle id="flowA.2" depart="70.00">
        <route edges="17-19 19-13 13-20 20-17"/>
    </vehicle>
    <vehicle id="flowA.3" depart="105.00">
        <route edges="17-19 19-13 13-20 20-17"/>
    </vehicle>
    <vehicle id="flowA.4" depart="140.00">
        <route edges="17-19 19-13 13-20 20-17"/>
    </vehicle>
    <vehicle id="flowA.5" depart="175.00">
        <route edges="17-19 19-13 13-20 20-17"/>
    </vehicle>
    <vehicle id="flowA.6" depart="210.00">
        <route edges="17-19 19-13 13-20 20-17"/>
    </vehicle>
    <vehicle id="flowA.7" depart="245.00">
        <route edges="17-19 19-13 13-20 20-17"/>
    </vehicle>
    <vehicle id="flowA.8" depart="280.00">
        <route edges="17-19 19-13 13-20 20-17"/>
    </vehicle>
    <vehicle id="flowA.9" depart="315.00">
        <route edges="17-19 19-13 13-20 20-17"/>
    </vehicle>
    <vehicle id="flowA.10" depart="350.00">
        <route edges="17-19 19-13 13-20 20-17"/>
    </vehicle>
    <vehicle id="flowA.11" depart="385.00">
        <route edges="17-19 19-13 13-20 20-17"/>
    </vehicle>
    <vehicle id="flowA.12" depart="420.00">
        <route edges="17-19 19-13 13-20 20-17"/>
    </vehicle>
    <vehicle id="flowA.13" depart="455.00">
        <route edges="17-19 19-13 13-20 20-17"/>
    </vehicle>
    <vehicle id="flowA.14" depart="490.00">
        <route edges="17-19 19-13 13-20 20-17"/>
    </vehicle>
    <vehicle id="flowA.15" depart="525.00">
        <route edges="17-19 19-13 13-20 20-17"/>
    </vehicle>
    <vehicle id="flowA.16" depart="560.00">
        <route edges="17-19 19-13 13-20 20-17"/>
    </vehicle>
    <vehicle id="flowA.17" depart="595.00">
        <route edges="17-19 19-13 13-20 20-17"/>
    </vehicle>
    <vehicle id="flowA.18" depart="630.00">
        <route edges="17-19 19-13 13-20 20-17"/>
    </vehicle>
    <vehicle id="flowA.19" depart="665.00">
        <route edges="17-19 19-13 13-20 20-17"/>
    </vehicle>
    <vehicle id="flowA.20" depart="700.00">
        <route edges="17-19 19-13 13-20 20-17"/>
    </vehicle>
    <vehicle id="flowA.21" depart="735.00">
        <route edges="17-19 19-13 13-20 20-17"/>
    </vehicle>
    <vehicle id="flowA.22" depart="770.00">
        <route edges="17-19 19-13 13-20 20-17"/>
    </vehicle>
    <vehicle id="flowA.23" depart="805.00">
        <route edges="17-19 19-13 13-20 20-17"/>
    </vehicle>
    <vehicle id="flowA.24" depart="840.00">
        <route edges="17-19 19-13 13-20 20-17"/>
    </vehicle>
    <vehicle id="flowA.25" depart="875.00">
        <route edges="17-19 19-13 13-20 20-17"/>
    </vehicle>
    <vehicle id="flowA.26" depart="910.00">
        <route edges="17-19 19-13 13-20 20-17"/>
    </vehicle>
    <vehicle id="flowA.27" depart="945.00">
        <route edges="17-19 19-13 13-20 20-17"/>
    </vehicle>
    <vehicle id="flowA.28" depart="980.00">
        <route edges="17-19 19-13 13-20 20-17"/>
    </vehicle>
    <vehicle id="flowA.29" depart="1015.00">
        <route edges="17-19 19-13 13-20 20-17"/>
    </vehicle>
    <vehicle id="flowA.30" depart="1050.00">
        <route edges="17-19 19-13 13-20 20-17"/>
    </vehicle>
    <vehicle id="flowA.31" depart="1085.00">
        <route edges="17-19 19-13 13-20 20-17"/>
    </vehicle>
    <vehicle id="flowA.32" depart="1120.00">
        <route edges="17-19 19-13 13-20 20-17"/>
    </vehicle>
    <vehicle id="flowA.33" depart="1155.00">
        <route edges="17-19 19-13 13-20 20-17"/>
    </vehicle>
    <vehicle id="flowA.34" depart="1190.00">
        <route edges="17-19 19-13 13-20 20-17"/>
    </vehicle>
    <vehicle id="flowA.35" depart="1225.00">
        <route edges="17-19 19-13 13-20 20-17"/>
    </vehicle>
    <vehicle id="flowA.36" depart="1260.00">
        <route edges="17-19 19-13 13-20 20-17"/>
    </vehicle>
    <vehicle id="flowA.37" depart="1295.00">
        <route edges="17-19 19-13 13-20 20-17"/>
    </vehicle>
    <vehicle id="flowA.38" depart="1330.00">
        <route edges="17-19 19-13 13-20 20-17"/>
    </vehicle>
    <vehicle id="flowA.39" depart="1365.00">
        <route edges="17-19 19-13 13-20 20-17"/>
    </vehicle>
    <vehicle id="flowA.40" depart="1400.00">
        <route edges="17-19 19-13 13-20 20-17"/>
    </vehicle>
    <vehicle id="flowA.41" depart="1435.00">
        <route edges="17-19 19-13 13-20 20-17"/>
    </vehicle>
    <vehicle id="flowA.42" depart="1470.00">
        <route edges="17-19 19-13 13-20 20-17"/>
    </vehicle>
    <vehicle id="flowA.43" depart="1505.00">
        <route edges="17-19 19-13 13-20 20-17"/>
    </vehicle>
    <vehicle id="flowA.44" depart="1540.00">
        <route edges="17-19 19-13 13-20 20-17"/>
    </vehicle>
    <vehicle id="flowA.45" depart="1575.00">
        <route edges="17-19 19-13 13-20 20-17"/>
    </vehicle>
    <vehicle id="flowA.46" depart="1610.00">
        <route edges="17-19 19-13 13-20 20-17"/>
    </vehicle>
    <vehicle id="flowA.47" depart="1645.00">
        <route edges="17-19 19-13 13-20 20-17"/>
    </vehicle>
    <vehicle id="flowA.48" depart="1680.00">
        <route edges="17-19 19-13 13-20 20-17"/>
    </vehicle>
    <vehicle id="flowA.49" depart="1715.00">
        <route edges="17-19 19-13 13-20 20-17"/>
    </vehicle>
    <vehicle id="flowA.50" depart="1750.00">
        <route edges="17-19 19-13 13-20 20-17"/>
    </vehicle>
    <vehicle id="flowA.51" depart="1785.00">
        <route edges="17-19 19-13 13-20 20-17"/>
    </vehicle>
    <vehicle id="flowA.52" depart="1820.00">
        <route edges="17-19 19-13 13-20 20-17"/>
    </vehicle>
    <vehicle id="flowA.53" depart="1855.00">
        <route edges="17-19 19-13 13-20 20-17"/>
    </vehicle>
    <vehicle id="flowA.54" depart="1890.00">
        <route edges="17-19 19-13 13-20 20-17"/>
    </vehicle>
    <vehicle id="flowA.55" depart="1925.00">
        <route edges="17-19 19-13 13-20 20-17"/>
    </vehicle>
    <vehicle id="flowA.56" depart="1960.00">
        <route edges="17-19 19-13 13-20 20-17"/>
    </vehicle>
    <vehicle id="flowA.57" depart="1995.00">
        <route edges="17-19 19-13 13-20 20-17"/>
    </vehicle>
    <vehicle id="flowA.58" depart="2030.00">
        <route edges="17-19 19-13 13-20 20-17"/>
    </vehicle>
    <vehicle id="flowA.59" depart="2065.00">
        <route edges="17-19 19-13 13-20 20-17"/>
    </vehicle>
    <vehicle id="flowA.60" depart="2100.00">
        <route edges="17-19 19-13 13-20 20-17"/>
    </vehicle>
    <vehicle id="flowA.61" depart="2135.00">
        <route edges="17-19 19-13 13-20 20-17"/>
    </vehicle>
    <vehicle id="flowA.62" depart="2170.00">
        <route edges="17-19 19-13 13-20 20-17"/>
    </vehicle>
    <vehicle id="flowA.63" depart="2205.00">
        <route edges="17-19 19-13 13-20 20-17"/>
    </vehicle>
    <vehicle id="flowA.64" depart="2240.00">
        <route edges="17-19 19-13 13-20 20-17"/>
    </vehicle>
    <vehicle id="flowA.65" depart="2275.00">
        <route edges="17-19 19-13 13-20 20-17"/>
    </vehicle>
    <vehicle id="flowA.66" depart="2310.00">
        <route edges="17-19 19-13 13-20 20-17"/>
    </vehicle>
    <vehicle id="flowA.67" depart="2345.00">
        <route edges="17-19 19-13 13-20 20-17"/>
    </vehicle>
    <vehicle id="flowA.68" depart="2380.00">
        <route edges="17-19 19-13 13-20 20-17"/>
    </vehicle>
    <vehicle id="flowA.69" depart="2415.00">
        <route edges="17-19 19-13 13-20 20-17"/>
    </vehicle>
    <vehicle id="flowA.70" depart="2450.00">
        <route edges="17-19 19-13 13-20 20-17"/>
    </vehicle>
    <vehicle id="flowA.71" depart="2485.00">
        <route edges="17-19 19-13 13-20 20-17"/>
    </vehicle>
    <vehicle id="flowA.72" depart="2520.00">
        <route edges="17-19 19-13 13-20 20-17"/>
    </vehicle>
    <vehicle id="flowA.73" depart="2555.00">
        <route edges="17-19 19-13 13-20 20-17"/>
    </vehicle>
    <vehicle id="flowA.74" depart="2590.00">
        <route edges="17-19 19-13 13-20 20-17"/>
    </vehicle>
    <vehicle id="flowA.75" depart="2625.00">
        <route edges="17-19 19-13 13-20 20-17"/>
    </vehicle>
    <vehicle id="flowA.76" depart="2660.00">
        <route edges="17-19 19-13 13-20 20-17"/>
    </vehicle>
    <vehicle id="flowA.77" depart="2695.00">
        <route edges="17-19 19-13 13-20 20-17"/>
    </vehicle>
    <vehicle id="flowA.78" depart="2730.00">
        <route edges="17-19 19-13 13-20 20-17"/>
    </vehicle>
    <vehicle id="flowA.79" depart="2765.00">
        <route edges="17-19 19-13 13-20 20-17"/>
    </vehicle>
    <vehicle id="flowA.80" depart="2800.00">
        <route edges="17-19 19-13 13-20 20-17"/>
    </vehicle>
    <vehicle id="flowA.81" depart="2835.00">
        <route edges="17-19 19-13 13-20 20-17"/>
    </vehicle>
    <vehicle id="flowA.82" depart="2870.00">
        <route edges="17-19 19-13 13-20 20-17"/>
    </vehicle>
    <vehicle id="flowA.83" depart="2905.00">
        <route edges="17-19 19-13 13-20 20-17"/>
    </vehicle>
    <vehicle id="flowA.84" depart="2940.00">
        <route edges="17-19 19-13 13-20 20-17"/>
    </vehicle>
    <vehicle id="flowA.85" depart="2975.00">
        <route edges="17-19 19-13 13-20 20-17"/>
    </vehicle>
    <vehicle id="flowA.86" depart="3010.00">
        <route edges="17-19 19-13 13-20 20-17"/>
    </vehicle>
    <vehicle id="flowA.87" depart="3045.00">
        <route edges="17-19 19-13 13-20 20-17"/>
    </vehicle>
    <vehicle id="flowA.88" depart="3080.00">
        <route edges="17-19 19-13 13-20 20-17"/>
    </vehicle>
    <vehicle id="flowA.89" depart="3115.00">
        <route edges="17-19 19-13 13-20 20-17"/>
    </vehicle>
    <vehicle id="flowA.90" depart="3150.00">
        <route edges="17-19 19-13 13-20 20-17"/>
    </vehicle>
    <vehicle id="flowA.91" depart="3185.00">
        <route edges="17-19 19-13 13-20 20-17"/>
    </vehicle>
    <vehicle id="flowA.92" depart="3220.00">
        <route edges="17-19 19-13 13-20 20-17"/>
    </vehicle>
    <vehicle id="flowA.93" depart="3255.00">
        <route edges="17-19 19-13 13-20 20-17"/>
    </vehicle>
    <vehicle id="flowA.94" depart="3290.00">
        <route edges="17-19 19-13 13-20 20-17"/>
    </vehicle>
    <vehicle id="flowA.95" depart="3325.00">
        <route edges="17-19 19-13 13-20 20-17"/>
    </vehicle>
    <vehicle id="flowA.96" depart="3360.00">
        <route edges="17-19 19-13 13-20 20-17"/>
    </vehicle>
    <vehicle id="flowA.97" depart="3395.00">
        <route edges="17-19 19-13 13-20 20-17"/>
    </vehicle>
    <vehicle id="flowA.98" depart="3430.00">
        <route edges="17-19 19-13 13-20 20-17"/>
    </vehicle>
    <vehicle id="flowA.99" depart="3465.00">
        <route edges="17-19 19-13 13-20 20-17"/>
    </vehicle>
    <vehicle id="flowA.100" depart="3500.00">
        <route edges="17-19 19-13 13-20 20-17"/>
    </vehicle>
    <vehicle id="flowA.101" depart="3535.00">
        <route edges="17-19 19-13 13-20 20-17"/>
    </vehicle>
    <vehicle id="flowA.102" depart="3570.00">
        <route edges="17-19 19-13 13-20 20-17"/>
    </vehicle>
    <vehicle id="flowA.103" depart="3605.00">
        <route edges="17-19 19-13 13-20 20-17"/>
    </vehicle>
    <vehicle id="flowA.104" depart="3640.00">
        <route edges="17-19 19-13 13-20 20-17"/>
    </vehicle>
    <vehicle id="flowA.105" depart="3675.00">
        <route edges="17-19 19-13 13-20 20-17"/>
    </vehicle>
    <vehicle id="flowA.106" depart="3710.00">
        <route edges="17-19 19-13 13-20 20-17"/>
    </vehicle>
    <vehicle id="flowA.107" depart="3745.00">
        <route edges="17-19 19-13 13-20 20-17"/>
    </vehicle>
    <vehicle id="flowA.108" depart="3780.00">
        <route edges="17-19 19-13 13-20 20-17"/>
    </vehicle>
    <vehicle id="flowA.109" depart="3815.00">
        <route edges="17-19 19-13 13-20 20-17"/>
    </vehicle>
    <vehicle id="flowA.110" depart="3850.00">
        <route edges="17-19 19-13 13-20 20-17"/>
    </vehicle>
    <vehicle id="flowA.111" depart="3885.00">
        <route edges="17-19 19-13 13-20 20-17"/>
    </vehicle>
    <vehicle id="flowA.112" depart="3920.00">
        <route edges="17-19 19-13 13-20 20-17"/>
    </vehicle>
    <vehicle id="flowA.113" depart="3955.00">
        <route edges="17-19 19-13 13-20 20-17"/>
    </vehicle>
    <vehicle id="flowA.114" depart="3990.00">
        <route edges="17-19 19-13 13-20 20-17"/>
    </vehicle>
    <vehicle id="flowA.115" depart="4025.00">
        <route edges="17-19 19-13 13-20 20-17"/>
    </vehicle>
    <vehicle id="flowA.116" depart="4060.00">
        <route edges="17-19 19-13 13-20 20-17"/>
    </vehicle>
    <vehicle id="flowA.117" depart="4095.00">
        <route edges="17-19 19-13 13-20 20-17"/>
    </vehicle>
    <vehicle id="flowA.118" depart="4130.00">
        <route edges="17-19 19-13 13-20 20-17"/>
    </vehicle>
    <vehicle id="flowA.119" depart="4165.00">
        <route edges="17-19 19-13 13-20 20-17"/>
    </vehicle>
    <vehicle id="flowA.120" depart="4200.00">
        <route edges="17-19 19-13 13-20 20-17"/>
    </vehicle>
    <vehicle id="flowA.121" depart="4235.00">
        <route edges="17-19 19-13 13-20 20-17"/>
    </vehicle>
    <vehicle id="flowA.122" depart="4270.00">
        <route edges="17-19 19-13 13-20 20-17"/>
    </vehicle>
    <vehicle id="flowA.123" depart="4305.00">
        <route edges="17-19 19-13 13-20 20-17"/>
    </vehicle>
    <vehicle id="flowA.124" depart="4340.00">
        <route edges="17-19 19-13 13-20 20-17"/>
    </vehicle>
    <vehicle id="flowA.125" depart="4375.00">
        <route edges="17-19 19-13 13-20 20-17"/>
    </vehicle>
    <vehicle id="flowA.126" depart="4410.00">
        <route edges="17-19 19-13 13-20 20-17"/>
    </vehicle>
    <vehicle id="flowA.127" depart="4445.00">
        <route edges="17-19 19-13 13-20 20-17"/>
    </vehicle>
    <vehicle id="flowA.128" depart="4480.00">
        <route edges="17-19 19-13 13-20 20-17"/>
    </vehicle>
    <vehicle id="flowA.129" depart="4515.00">
        <route edges="17-19 19-13 13-20 20-17"/>
    </vehicle>
    <vehicle id="flowA.130" depart="4550.00">
        <route edges="17-19 19-13 13-20 20-17"/>
    </vehicle>
    <vehicle id="flowA.131" depart="4585.00">
        <route edges="17-19 19-13 13-20 20-17"/>
    </vehicle>
    <vehicle id="flowA.132" depart="4620.00">
        <route edges="17-19 19-13 13-20 20-17"/>
    </vehicle>
    <vehicle id="flowA.133" depart="4655.00">
        <route edges="17-19 19-13 13-20 20-17"/>
    </vehicle>
    <vehicle id="flowA.134" depart="4690.00">
        <route edges="17-19 19-13 13-20 20-17"/>
    </vehicle>
    <vehicle id="flowA.135" depart="4725.00">
        <route edges="17-19 19-13 13-20 20-17"/>
    </vehicle>
    <vehicle id="flowA.136" depart="4760.00">
        <route edges="17-19 19-13 13-20 20-17"/>
    </vehicle>
    <vehicle id="flowA.137" depart="4795.00">
        <route edges="17-19 19-13 13-20 20-17"/>
    </vehicle>
    <vehicle id="flowA.138" depart="4830.00">
        <route edges="17-19 19-13 13-20 20-17"/>
    </vehicle>
    <vehicle id="flowA.139" depart="4865.00">
        <route edges="17-19 19-13 13-20 20-17"/>
    </vehicle>
    <vehicle id="flowA.140" depart="4900.00">
        <route edges="17-19 19-13 13-20 20-17"/>
    </vehicle>
    <vehicle id="flowA.141" depart="4935.00">
        <route edges="17-19 19-13 13-20 20-17"/>
    </vehicle>
    <vehicle id="flowA.142" depart="4970.00">
        <route edges="17-19 19-13 13-20 20-17"/>
    </vehicle>
    <vehicle id="flowA.143" depart="5005.00">
        <route edges="17-19 19-13 13-20 20-17"/>
    </vehicle>
    <vehicle id="flowA.144" depart="5040.00">
        <route edges="17-19 19-13 13-20 20-17"/>
    </vehicle>
    <vehicle id="flowA.145" depart="5075.00">
        <route edges="17-19 19-13 13-20 20-17"/>
    </vehicle>
    <vehicle id="flowA.146" depart="5110.00">
        <route edges="17-19 19-13 13-20 20-17"/>
    </vehicle>
    <vehicle id="flowA.147" depart="5145.00">
        <route edges="17-19 19-13 13-20 20-17"/>
    </vehicle>
    <vehicle id="flowA.148" depart="5180.00">
        <route edges="17-19 19-13 13-20 20-17"/>
    </vehicle>
    <vehicle id="flowA.149" depart="5215.00">
        <route edges="17-19 19-13 13-20 20-17"/>
    </vehicle>
    <vehicle id="flowA.150" depart="5250.00">
        <route edges="17-19 19-13 13-20 20-17"/>
    </vehicle>
    <vehicle id="flowA.151" depart="5285.00">
        <route edges="17-19 19-13 13-20 20-17"/>
    </vehicle>
    <vehicle id="flowA.152" depart="5320.00">
        <route edges="17-19 19-13 13-20 20-17"/>
    </vehicle>
    <vehicle id="flowA.153" depart="5355.00">
        <route edges="17-19 19-13 13-20 20-17"/>
    </vehicle>
    <vehicle id="flowA.154" depart="5390.00">
        <route edges="17-19 19-13 13-20 20-17"/>
    </vehicle>
    <vehicle id="flowA.155" depart="5425.00">
        <route edges="17-19 19-13 13-20 20-17"/>
    </vehicle>
    <vehicle id="flowA.156" depart="5460.00">
        <route edges="17-19 19-13 13-20 20-17"/>
    </vehicle>
    <vehicle id="flowA.157" depart="5495.00">
        <route edges="17-19 19-13 13-20 20-17"/>
    </vehicle>
    <vehicle id="flowA.158" depart="5530.00">
        <route edges="17-19 19-13 13-20 20-17"/>
    </vehicle>
    <vehicle id="flowA.159" depart="5565.00">
        <route edges="17-19 19-13 13-20 20-17"/>
    </vehicle>
    <vehicle id="flowA.160" depart="5600.00">
        <route edges="17-19 19-13 13-20 20-17"/>
    </vehicle>
    <vehicle id="flowA.161" depart="5635.00">
        <route edges="17-19 19-13 13-20 20-17"/>
    </vehicle>
    <vehicle id="flowA.162" depart="5670.00">
        <route edges="17-19 19-13 13-20 20-17"/>
    </vehicle>
    <vehicle id="flowA.163" depart="5705.00">
        <route edges="17-19 19-13 13-20 20-17"/>
    </vehicle>
    <vehicle id="flowA.164" depart="5740.00">
        <route edges="17-19 19-13 13-20 20-17"/>
    </vehicle>
    <vehicle id="flowA.165" depart="5775.00">
        <route edges="17-19 19-13 13-20 20-17"/>
    </vehicle>
    <vehicle id="flowA.166" depart="5810.00">
        <route edges="17-19 19-13 13-20 20-17"/>
    </vehicle>
    <vehicle id="flowA.167" depart="5845.00">
        <route edges="17-19 19-13 13-20 20-17"/>
    </vehicle>
    <vehicle id="flowA.168" depart="5880.00">
        <route edges="17-19 19-13 13-20 20-17"/>
    </vehicle>
    <vehicle id="flowA.169" depart="5915.00">
        <route edges="17-19 19-13 13-20 20-17"/>
    </vehicle>
    <vehicle id="flowA.170" depart="5950.00">
        <route edges="17-19 19-13 13-20 20-17"/>
    </vehicle>
    <vehicle id="flowA.171" depart="5985.00">
        <route edges="17-19 19-13 13-20 20-17"/>
    </vehicle>
    <vehicle id="flowA.172" depart="6020.00">
        <route edges="17-19 19-13 13-20 20-17"/>
    </vehicle>
    <vehicle id="flowA.173" depart="6055.00">
        <route edges="17-19 19-13 13-20 20-17"/>
    </vehicle>
    <vehicle id="flowA.174" depart="6090.00">
        <route edges="17-19 19-13 13-20 20-17"/>
    </vehicle>
    <vehicle id="flowA.175" depart="6125.00">
        <route edges="17-19 19-13 13-20 20-17"/>
    </vehicle>
    <vehicle id="flowA.176" depart="6160.00">
        <route edges="17-19 19-13 13-20 20-17"/>
    </vehicle>
    <vehicle id="flowA.177" depart="6195.00">
        <route edges="17-19 19-13 13-20 20-17"/>
    </vehicle>
    <vehicle id="flowA.178" depart="6230.00">
        <route edges="17-19 19-13 13-20 20-17"/>
    </vehicle>
    <vehicle id="flowA.179" depart="6265.00">
        <route edges="17-19 19-13 13-20 20-17"/>
    </vehicle>
    <vehicle id="flowA.180" depart="6300.00">
        <route edges="17-19 19-13 13-20 20-17"/>
    </vehicle>
    <vehicle id="flowA.181" depart="6335.00">
        <route edges="17-19 19-13 13-20 20-17"/>
    </vehicle>
    <vehicle id="flowA.182" depart="6370.00">
        <route edges="17-19 19-13 13-20 20-17"/>
    </vehicle>
    <vehicle id="flowA.183" depart="6405.00">
        <route edges="17-19 19-13 13-20 20-17"/>
    </vehicle>
    <vehicle id="flowA.184" depart="6440.00">
        <route edges="17-19 19-13 13-20 20-17"/>
    </vehicle>
    <vehicle id="flowA.185" depart="6475.00">
        <route edges="17-19 19-13 13-20 20-17"/>
    </vehicle>
    <vehicle id="flowA.186" depart="6510.00">
        <route edges="17-19 19-13 13-20 20-17"/>
    </vehicle>
    <vehicle id="flowA.187" depart="6545.00">
        <route edges="17-19 19-13 13-20 20-17"/>
    </vehicle>
    <vehicle id="flowA.188" depart="6580.00">
        <route edges="17-19 19-13 13-20 20-17"/>
    </vehicle>
    <vehicle id="flowA.189" depart="6615.00">
        <route edges="17-19 19-13 13-20 20-17"/>
    </vehicle>
    <vehicle id="flowA.190" depart="6650.00">
        <route edges="17-19 19-13 13-20 20-17"/>
    </vehicle>
    <vehicle id="flowA.191" depart="6685.00">
        <route edges="17-19 19-13 13-20 20-17"/>
    </vehicle>
    <vehicle id="flowA.192" depart="6720.00">
        <route edges="17-19 19-13 13-20 20-17"/>
    </vehicle>
    <vehicle id="flowA.193" depart="6755.00">
        <route edges="17-19 19-13 13-20 20-17"/>
    </vehicle>
    <vehicle id="flowA.194" depart="6790.00">
        <route edges="17-19 19-13 13-20 20-17"/>
    </vehicle>
    <vehicle id="flowA.195" depart="6825.00">
        <route edges="17-19 19-13 13-20 20-17"/>
    </vehicle>
    <vehicle id="flowA.196" depart="6860.00">
        <route edges="17-19 19-13 13-20 20-17"/>
    </vehicle>
    <vehicle id="flowA.197" depart="6895.00">
        <route edges="17-19 19-13 13-20 20-17"/>
    </vehicle>
    <vehicle id="flowA.198" depart="6930.00">
        <route edges="17-19 19-13 13-20 20-17"/>
    </vehicle>
    <vehicle id="flowA.199" depart="6965.00">
        <route edges="17-19 19-13 13-20 20-17"/>
    </vehicle>
</routes>
