<flows>
	<flow id="flowA" from="16-17" to="19-16" begin="0" end="7000" number="95"/>
	<flow id="flowB" from="20-21" to="23-20" begin="0" end="7000" number="110"/>

</flows>
