<?xml version="1.0" encoding="UTF-8"?>

<!-- generated on Tue Feb 28 15:50:46 2017 by SUMO duarouter Version 0.23.0
<?xml version="1.0" encoding="UTF-8"?>

<configuration xmlns:xsi="http://www.w3.org/2001/XMLSchema-instance" xsi:noNamespaceSchemaLocation="http://sumo.dlr.de/xsd/duarouterConfiguration.xsd">

    <input>
        <net-file value="test3.net.xml"/>
        <flow-files value="test3.flow.xml"/>
    </input>

    <output>
        <output-file value="test3.rou.xml"/>
    </output>

</configuration>
-->

<routes xmlns:xsi="http://www.w3.org/2001/XMLSchema-instance" xsi:noNamespaceSchemaLocation="http://sumo.dlr.de/xsd/routes_file.xsd">
    <vehicle id="flowA.0" depart="0.00">
        <route edges="16-17 17-18 18-19 19-16"/>
    </vehicle>
    <vehicle id="flowB.0" depart="0.00">
        <route edges="21-20 20-23 23-22 22-21"/>
    </vehicle>
    <vehicle id="flowA.1" depart="58.33">
        <route edges="16-17 17-18 18-19 19-16"/>
    </vehicle>
    <vehicle id="flowB.1" depart="58.33">
        <route edges="21-20 20-23 23-22 22-21"/>
    </vehicle>
    <vehicle id="flowA.2" depart="116.67">
        <route edges="16-17 17-18 18-19 19-16"/>
    </vehicle>
    <vehicle id="flowB.2" depart="116.67">
        <route edges="21-20 20-23 23-22 22-21"/>
    </vehicle>
    <vehicle id="flowA.3" depart="175.00">
        <route edges="16-17 17-18 18-19 19-16"/>
    </vehicle>
    <vehicle id="flowB.3" depart="175.00">
        <route edges="21-20 20-23 23-22 22-21"/>
    </vehicle>
    <vehicle id="flowA.4" depart="233.33">
        <route edges="16-17 17-18 18-19 19-16"/>
    </vehicle>
    <vehicle id="flowB.4" depart="233.33">
        <route edges="21-20 20-23 23-22 22-21"/>
    </vehicle>
    <vehicle id="flowA.5" depart="291.67">
        <route edges="16-17 17-18 18-19 19-16"/>
    </vehicle>
    <vehicle id="flowB.5" depart="291.67">
        <route edges="21-20 20-23 23-22 22-21"/>
    </vehicle>
    <vehicle id="flowA.6" depart="350.00">
        <route edges="16-17 17-18 18-19 19-16"/>
    </vehicle>
    <vehicle id="flowB.6" depart="350.00">
        <route edges="21-20 20-23 23-22 22-21"/>
    </vehicle>
    <vehicle id="flowA.7" depart="408.33">
        <route edges="16-17 17-18 18-19 19-16"/>
    </vehicle>
    <vehicle id="flowB.7" depart="408.33">
        <route edges="21-20 20-23 23-22 22-21"/>
    </vehicle>
    <vehicle id="flowA.8" depart="466.66">
        <route edges="16-17 17-18 18-19 19-16"/>
    </vehicle>
    <vehicle id="flowB.8" depart="466.66">
        <route edges="21-20 20-23 23-22 22-21"/>
    </vehicle>
    <vehicle id="flowA.9" depart="525.00">
        <route edges="16-17 17-18 18-19 19-16"/>
    </vehicle>
    <vehicle id="flowB.9" depart="525.00">
        <route edges="21-20 20-23 23-22 22-21"/>
    </vehicle>
    <vehicle id="flowA.10" depart="583.33">
        <route edges="16-17 17-18 18-19 19-16"/>
    </vehicle>
    <vehicle id="flowB.10" depart="583.33">
        <route edges="21-20 20-23 23-22 22-21"/>
    </vehicle>
    <vehicle id="flowA.11" depart="641.66">
        <route edges="16-17 17-18 18-19 19-16"/>
    </vehicle>
    <vehicle id="flowB.11" depart="641.66">
        <route edges="21-20 20-23 23-22 22-21"/>
    </vehicle>
    <vehicle id="flowA.12" depart="700.00">
        <route edges="16-17 17-18 18-19 19-16"/>
    </vehicle>
    <vehicle id="flowB.12" depart="700.00">
        <route edges="21-20 20-23 23-22 22-21"/>
    </vehicle>
    <vehicle id="flowA.13" depart="758.33">
        <route edges="16-17 17-18 18-19 19-16"/>
    </vehicle>
    <vehicle id="flowB.13" depart="758.33">
        <route edges="21-20 20-23 23-22 22-21"/>
    </vehicle>
    <vehicle id="flowA.14" depart="816.66">
        <route edges="16-17 17-18 18-19 19-16"/>
    </vehicle>
    <vehicle id="flowB.14" depart="816.66">
        <route edges="21-20 20-23 23-22 22-21"/>
    </vehicle>
    <vehicle id="flowA.15" depart="875.00">
        <route edges="16-17 17-18 18-19 19-16"/>
    </vehicle>
    <vehicle id="flowB.15" depart="875.00">
        <route edges="21-20 20-23 23-22 22-21"/>
    </vehicle>
    <vehicle id="flowA.16" depart="933.33">
        <route edges="16-17 17-18 18-19 19-16"/>
    </vehicle>
    <vehicle id="flowB.16" depart="933.33">
        <route edges="21-20 20-23 23-22 22-21"/>
    </vehicle>
    <vehicle id="flowA.17" depart="991.66">
        <route edges="16-17 17-18 18-19 19-16"/>
    </vehicle>
    <vehicle id="flowB.17" depart="991.66">
        <route edges="21-20 20-23 23-22 22-21"/>
    </vehicle>
    <vehicle id="flowA.18" depart="1049.99">
        <route edges="16-17 17-18 18-19 19-16"/>
    </vehicle>
    <vehicle id="flowB.18" depart="1049.99">
        <route edges="21-20 20-23 23-22 22-21"/>
    </vehicle>
    <vehicle id="flowA.19" depart="1108.33">
        <route edges="16-17 17-18 18-19 19-16"/>
    </vehicle>
    <vehicle id="flowB.19" depart="1108.33">
        <route edges="21-20 20-23 23-22 22-21"/>
    </vehicle>
    <vehicle id="flowA.20" depart="1166.66">
        <route edges="16-17 17-18 18-19 19-16"/>
    </vehicle>
    <vehicle id="flowB.20" depart="1166.66">
        <route edges="21-20 20-23 23-22 22-21"/>
    </vehicle>
    <vehicle id="flowA.21" depart="1224.99">
        <route edges="16-17 17-18 18-19 19-16"/>
    </vehicle>
    <vehicle id="flowB.21" depart="1224.99">
        <route edges="21-20 20-23 23-22 22-21"/>
    </vehicle>
    <vehicle id="flowA.22" depart="1283.33">
        <route edges="16-17 17-18 18-19 19-16"/>
    </vehicle>
    <vehicle id="flowB.22" depart="1283.33">
        <route edges="21-20 20-23 23-22 22-21"/>
    </vehicle>
    <vehicle id="flowA.23" depart="1341.66">
        <route edges="16-17 17-18 18-19 19-16"/>
    </vehicle>
    <vehicle id="flowB.23" depart="1341.66">
        <route edges="21-20 20-23 23-22 22-21"/>
    </vehicle>
    <vehicle id="flowA.24" depart="1399.99">
        <route edges="16-17 17-18 18-19 19-16"/>
    </vehicle>
    <vehicle id="flowB.24" depart="1399.99">
        <route edges="21-20 20-23 23-22 22-21"/>
    </vehicle>
    <vehicle id="flowA.25" depart="1458.33">
        <route edges="16-17 17-18 18-19 19-16"/>
    </vehicle>
    <vehicle id="flowB.25" depart="1458.33">
        <route edges="21-20 20-23 23-22 22-21"/>
    </vehicle>
    <vehicle id="flowA.26" depart="1516.66">
        <route edges="16-17 17-18 18-19 19-16"/>
    </vehicle>
    <vehicle id="flowB.26" depart="1516.66">
        <route edges="21-20 20-23 23-22 22-21"/>
    </vehicle>
    <vehicle id="flowA.27" depart="1574.99">
        <route edges="16-17 17-18 18-19 19-16"/>
    </vehicle>
    <vehicle id="flowB.27" depart="1574.99">
        <route edges="21-20 20-23 23-22 22-21"/>
    </vehicle>
    <vehicle id="flowA.28" depart="1633.32">
        <route edges="16-17 17-18 18-19 19-16"/>
    </vehicle>
    <vehicle id="flowB.28" depart="1633.32">
        <route edges="21-20 20-23 23-22 22-21"/>
    </vehicle>
    <vehicle id="flowA.29" depart="1691.66">
        <route edges="16-17 17-18 18-19 19-16"/>
    </vehicle>
    <vehicle id="flowB.29" depart="1691.66">
        <route edges="21-20 20-23 23-22 22-21"/>
    </vehicle>
    <vehicle id="flowA.30" depart="1749.99">
        <route edges="16-17 17-18 18-19 19-16"/>
    </vehicle>
    <vehicle id="flowB.30" depart="1749.99">
        <route edges="21-20 20-23 23-22 22-21"/>
    </vehicle>
    <vehicle id="flowA.31" depart="1808.32">
        <route edges="16-17 17-18 18-19 19-16"/>
    </vehicle>
    <vehicle id="flowB.31" depart="1808.32">
        <route edges="21-20 20-23 23-22 22-21"/>
    </vehicle>
    <vehicle id="flowA.32" depart="1866.66">
        <route edges="16-17 17-18 18-19 19-16"/>
    </vehicle>
    <vehicle id="flowB.32" depart="1866.66">
        <route edges="21-20 20-23 23-22 22-21"/>
    </vehicle>
    <vehicle id="flowA.33" depart="1924.99">
        <route edges="16-17 17-18 18-19 19-16"/>
    </vehicle>
    <vehicle id="flowB.33" depart="1924.99">
        <route edges="21-20 20-23 23-22 22-21"/>
    </vehicle>
    <vehicle id="flowA.34" depart="1983.32">
        <route edges="16-17 17-18 18-19 19-16"/>
    </vehicle>
    <vehicle id="flowB.34" depart="1983.32">
        <route edges="21-20 20-23 23-22 22-21"/>
    </vehicle>
    <vehicle id="flowA.35" depart="2041.65">
        <route edges="16-17 17-18 18-19 19-16"/>
    </vehicle>
    <vehicle id="flowB.35" depart="2041.65">
        <route edges="21-20 20-23 23-22 22-21"/>
    </vehicle>
    <vehicle id="flowA.36" depart="2099.99">
        <route edges="16-17 17-18 18-19 19-16"/>
    </vehicle>
    <vehicle id="flowB.36" depart="2099.99">
        <route edges="21-20 20-23 23-22 22-21"/>
    </vehicle>
    <vehicle id="flowA.37" depart="2158.32">
        <route edges="16-17 17-18 18-19 19-16"/>
    </vehicle>
    <vehicle id="flowB.37" depart="2158.32">
        <route edges="21-20 20-23 23-22 22-21"/>
    </vehicle>
    <vehicle id="flowA.38" depart="2216.65">
        <route edges="16-17 17-18 18-19 19-16"/>
    </vehicle>
    <vehicle id="flowB.38" depart="2216.65">
        <route edges="21-20 20-23 23-22 22-21"/>
    </vehicle>
    <vehicle id="flowA.39" depart="2274.99">
        <route edges="16-17 17-18 18-19 19-16"/>
    </vehicle>
    <vehicle id="flowB.39" depart="2274.99">
        <route edges="21-20 20-23 23-22 22-21"/>
    </vehicle>
    <vehicle id="flowA.40" depart="2333.32">
        <route edges="16-17 17-18 18-19 19-16"/>
    </vehicle>
    <vehicle id="flowB.40" depart="2333.32">
        <route edges="21-20 20-23 23-22 22-21"/>
    </vehicle>
    <vehicle id="flowA.41" depart="2391.65">
        <route edges="16-17 17-18 18-19 19-16"/>
    </vehicle>
    <vehicle id="flowB.41" depart="2391.65">
        <route edges="21-20 20-23 23-22 22-21"/>
    </vehicle>
    <vehicle id="flowA.42" depart="2449.99">
        <route edges="16-17 17-18 18-19 19-16"/>
    </vehicle>
    <vehicle id="flowB.42" depart="2449.99">
        <route edges="21-20 20-23 23-22 22-21"/>
    </vehicle>
    <vehicle id="flowA.43" depart="2508.32">
        <route edges="16-17 17-18 18-19 19-16"/>
    </vehicle>
    <vehicle id="flowB.43" depart="2508.32">
        <route edges="21-20 20-23 23-22 22-21"/>
    </vehicle>
    <vehicle id="flowA.44" depart="2566.65">
        <route edges="16-17 17-18 18-19 19-16"/>
    </vehicle>
    <vehicle id="flowB.44" depart="2566.65">
        <route edges="21-20 20-23 23-22 22-21"/>
    </vehicle>
    <vehicle id="flowA.45" depart="2624.99">
        <route edges="16-17 17-18 18-19 19-16"/>
    </vehicle>
    <vehicle id="flowB.45" depart="2624.99">
        <route edges="21-20 20-23 23-22 22-21"/>
    </vehicle>
    <vehicle id="flowA.46" depart="2683.32">
        <route edges="16-17 17-18 18-19 19-16"/>
    </vehicle>
    <vehicle id="flowB.46" depart="2683.32">
        <route edges="21-20 20-23 23-22 22-21"/>
    </vehicle>
    <vehicle id="flowA.47" depart="2741.65">
        <route edges="16-17 17-18 18-19 19-16"/>
    </vehicle>
    <vehicle id="flowB.47" depart="2741.65">
        <route edges="21-20 20-23 23-22 22-21"/>
    </vehicle>
    <vehicle id="flowA.48" depart="2799.98">
        <route edges="16-17 17-18 18-19 19-16"/>
    </vehicle>
    <vehicle id="flowB.48" depart="2799.98">
        <route edges="21-20 20-23 23-22 22-21"/>
    </vehicle>
    <vehicle id="flowA.49" depart="2858.32">
        <route edges="16-17 17-18 18-19 19-16"/>
    </vehicle>
    <vehicle id="flowB.49" depart="2858.32">
        <route edges="21-20 20-23 23-22 22-21"/>
    </vehicle>
    <vehicle id="flowA.50" depart="2916.65">
        <route edges="16-17 17-18 18-19 19-16"/>
    </vehicle>
    <vehicle id="flowB.50" depart="2916.65">
        <route edges="21-20 20-23 23-22 22-21"/>
    </vehicle>
    <vehicle id="flowA.51" depart="2974.98">
        <route edges="16-17 17-18 18-19 19-16"/>
    </vehicle>
    <vehicle id="flowB.51" depart="2974.98">
        <route edges="21-20 20-23 23-22 22-21"/>
    </vehicle>
    <vehicle id="flowA.52" depart="3033.32">
        <route edges="16-17 17-18 18-19 19-16"/>
    </vehicle>
    <vehicle id="flowB.52" depart="3033.32">
        <route edges="21-20 20-23 23-22 22-21"/>
    </vehicle>
    <vehicle id="flowA.53" depart="3091.65">
        <route edges="16-17 17-18 18-19 19-16"/>
    </vehicle>
    <vehicle id="flowB.53" depart="3091.65">
        <route edges="21-20 20-23 23-22 22-21"/>
    </vehicle>
    <vehicle id="flowA.54" depart="3149.98">
        <route edges="16-17 17-18 18-19 19-16"/>
    </vehicle>
    <vehicle id="flowB.54" depart="3149.98">
        <route edges="21-20 20-23 23-22 22-21"/>
    </vehicle>
    <vehicle id="flowA.55" depart="3208.32">
        <route edges="16-17 17-18 18-19 19-16"/>
    </vehicle>
    <vehicle id="flowB.55" depart="3208.32">
        <route edges="21-20 20-23 23-22 22-21"/>
    </vehicle>
    <vehicle id="flowA.56" depart="3266.65">
        <route edges="16-17 17-18 18-19 19-16"/>
    </vehicle>
    <vehicle id="flowB.56" depart="3266.65">
        <route edges="21-20 20-23 23-22 22-21"/>
    </vehicle>
    <vehicle id="flowA.57" depart="3324.98">
        <route edges="16-17 17-18 18-19 19-16"/>
    </vehicle>
    <vehicle id="flowB.57" depart="3324.98">
        <route edges="21-20 20-23 23-22 22-21"/>
    </vehicle>
    <vehicle id="flowA.58" depart="3383.31">
        <route edges="16-17 17-18 18-19 19-16"/>
    </vehicle>
    <vehicle id="flowB.58" depart="3383.31">
        <route edges="21-20 20-23 23-22 22-21"/>
    </vehicle>
    <vehicle id="flowA.59" depart="3441.65">
        <route edges="16-17 17-18 18-19 19-16"/>
    </vehicle>
    <vehicle id="flowB.59" depart="3441.65">
        <route edges="21-20 20-23 23-22 22-21"/>
    </vehicle>
    <vehicle id="flowA.60" depart="3499.98">
        <route edges="16-17 17-18 18-19 19-16"/>
    </vehicle>
    <vehicle id="flowB.60" depart="3499.98">
        <route edges="21-20 20-23 23-22 22-21"/>
    </vehicle>
    <vehicle id="flowA.61" depart="3558.31">
        <route edges="16-17 17-18 18-19 19-16"/>
    </vehicle>
    <vehicle id="flowB.61" depart="3558.31">
        <route edges="21-20 20-23 23-22 22-21"/>
    </vehicle>
    <vehicle id="flowA.62" depart="3616.65">
        <route edges="16-17 17-18 18-19 19-16"/>
    </vehicle>
    <vehicle id="flowB.62" depart="3616.65">
        <route edges="21-20 20-23 23-22 22-21"/>
    </vehicle>
    <vehicle id="flowA.63" depart="3674.98">
        <route edges="16-17 17-18 18-19 19-16"/>
    </vehicle>
    <vehicle id="flowB.63" depart="3674.98">
        <route edges="21-20 20-23 23-22 22-21"/>
    </vehicle>
    <vehicle id="flowA.64" depart="3733.31">
        <route edges="16-17 17-18 18-19 19-16"/>
    </vehicle>
    <vehicle id="flowB.64" depart="3733.31">
        <route edges="21-20 20-23 23-22 22-21"/>
    </vehicle>
    <vehicle id="flowA.65" depart="3791.64">
        <route edges="16-17 17-18 18-19 19-16"/>
    </vehicle>
    <vehicle id="flowB.65" depart="3791.64">
        <route edges="21-20 20-23 23-22 22-21"/>
    </vehicle>
    <vehicle id="flowA.66" depart="3849.98">
        <route edges="16-17 17-18 18-19 19-16"/>
    </vehicle>
    <vehicle id="flowB.66" depart="3849.98">
        <route edges="21-20 20-23 23-22 22-21"/>
    </vehicle>
    <vehicle id="flowA.67" depart="3908.31">
        <route edges="16-17 17-18 18-19 19-16"/>
    </vehicle>
    <vehicle id="flowB.67" depart="3908.31">
        <route edges="21-20 20-23 23-22 22-21"/>
    </vehicle>
    <vehicle id="flowA.68" depart="3966.64">
        <route edges="16-17 17-18 18-19 19-16"/>
    </vehicle>
    <vehicle id="flowB.68" depart="3966.64">
        <route edges="21-20 20-23 23-22 22-21"/>
    </vehicle>
    <vehicle id="flowA.69" depart="4024.98">
        <route edges="16-17 17-18 18-19 19-16"/>
    </vehicle>
    <vehicle id="flowB.69" depart="4024.98">
        <route edges="21-20 20-23 23-22 22-21"/>
    </vehicle>
    <vehicle id="flowA.70" depart="4083.31">
        <route edges="16-17 17-18 18-19 19-16"/>
    </vehicle>
    <vehicle id="flowB.70" depart="4083.31">
        <route edges="21-20 20-23 23-22 22-21"/>
    </vehicle>
    <vehicle id="flowA.71" depart="4141.64">
        <route edges="16-17 17-18 18-19 19-16"/>
    </vehicle>
    <vehicle id="flowB.71" depart="4141.64">
        <route edges="21-20 20-23 23-22 22-21"/>
    </vehicle>
    <vehicle id="flowA.72" depart="4199.98">
        <route edges="16-17 17-18 18-19 19-16"/>
    </vehicle>
    <vehicle id="flowB.72" depart="4199.98">
        <route edges="21-20 20-23 23-22 22-21"/>
    </vehicle>
    <vehicle id="flowA.73" depart="4258.31">
        <route edges="16-17 17-18 18-19 19-16"/>
    </vehicle>
    <vehicle id="flowB.73" depart="4258.31">
        <route edges="21-20 20-23 23-22 22-21"/>
    </vehicle>
    <vehicle id="flowA.74" depart="4316.64">
        <route edges="16-17 17-18 18-19 19-16"/>
    </vehicle>
    <vehicle id="flowB.74" depart="4316.64">
        <route edges="21-20 20-23 23-22 22-21"/>
    </vehicle>
    <vehicle id="flowA.75" depart="4374.98">
        <route edges="16-17 17-18 18-19 19-16"/>
    </vehicle>
    <vehicle id="flowB.75" depart="4374.98">
        <route edges="21-20 20-23 23-22 22-21"/>
    </vehicle>
    <vehicle id="flowA.76" depart="4433.31">
        <route edges="16-17 17-18 18-19 19-16"/>
    </vehicle>
    <vehicle id="flowB.76" depart="4433.31">
        <route edges="21-20 20-23 23-22 22-21"/>
    </vehicle>
    <vehicle id="flowA.77" depart="4491.64">
        <route edges="16-17 17-18 18-19 19-16"/>
    </vehicle>
    <vehicle id="flowB.77" depart="4491.64">
        <route edges="21-20 20-23 23-22 22-21"/>
    </vehicle>
    <vehicle id="flowA.78" depart="4549.97">
        <route edges="16-17 17-18 18-19 19-16"/>
    </vehicle>
    <vehicle id="flowB.78" depart="4549.97">
        <route edges="21-20 20-23 23-22 22-21"/>
    </vehicle>
    <vehicle id="flowA.79" depart="4608.31">
        <route edges="16-17 17-18 18-19 19-16"/>
    </vehicle>
    <vehicle id="flowB.79" depart="4608.31">
        <route edges="21-20 20-23 23-22 22-21"/>
    </vehicle>
    <vehicle id="flowA.80" depart="4666.64">
        <route edges="16-17 17-18 18-19 19-16"/>
    </vehicle>
    <vehicle id="flowB.80" depart="4666.64">
        <route edges="21-20 20-23 23-22 22-21"/>
    </vehicle>
    <vehicle id="flowA.81" depart="4724.97">
        <route edges="16-17 17-18 18-19 19-16"/>
    </vehicle>
    <vehicle id="flowB.81" depart="4724.97">
        <route edges="21-20 20-23 23-22 22-21"/>
    </vehicle>
    <vehicle id="flowA.82" depart="4783.31">
        <route edges="16-17 17-18 18-19 19-16"/>
    </vehicle>
    <vehicle id="flowB.82" depart="4783.31">
        <route edges="21-20 20-23 23-22 22-21"/>
    </vehicle>
    <vehicle id="flowA.83" depart="4841.64">
        <route edges="16-17 17-18 18-19 19-16"/>
    </vehicle>
    <vehicle id="flowB.83" depart="4841.64">
        <route edges="21-20 20-23 23-22 22-21"/>
    </vehicle>
    <vehicle id="flowA.84" depart="4899.97">
        <route edges="16-17 17-18 18-19 19-16"/>
    </vehicle>
    <vehicle id="flowB.84" depart="4899.97">
        <route edges="21-20 20-23 23-22 22-21"/>
    </vehicle>
    <vehicle id="flowA.85" depart="4958.31">
        <route edges="16-17 17-18 18-19 19-16"/>
    </vehicle>
    <vehicle id="flowB.85" depart="4958.31">
        <route edges="21-20 20-23 23-22 22-21"/>
    </vehicle>
    <vehicle id="flowA.86" depart="5016.64">
        <route edges="16-17 17-18 18-19 19-16"/>
    </vehicle>
    <vehicle id="flowB.86" depart="5016.64">
        <route edges="21-20 20-23 23-22 22-21"/>
    </vehicle>
    <vehicle id="flowA.87" depart="5074.97">
        <route edges="16-17 17-18 18-19 19-16"/>
    </vehicle>
    <vehicle id="flowB.87" depart="5074.97">
        <route edges="21-20 20-23 23-22 22-21"/>
    </vehicle>
    <vehicle id="flowA.88" depart="5133.30">
        <route edges="16-17 17-18 18-19 19-16"/>
    </vehicle>
    <vehicle id="flowB.88" depart="5133.30">
        <route edges="21-20 20-23 23-22 22-21"/>
    </vehicle>
    <vehicle id="flowA.89" depart="5191.64">
        <route edges="16-17 17-18 18-19 19-16"/>
    </vehicle>
    <vehicle id="flowB.89" depart="5191.64">
        <route edges="21-20 20-23 23-22 22-21"/>
    </vehicle>
    <vehicle id="flowA.90" depart="5249.97">
        <route edges="16-17 17-18 18-19 19-16"/>
    </vehicle>
    <vehicle id="flowB.90" depart="5249.97">
        <route edges="21-20 20-23 23-22 22-21"/>
    </vehicle>
    <vehicle id="flowA.91" depart="5308.30">
        <route edges="16-17 17-18 18-19 19-16"/>
    </vehicle>
    <vehicle id="flowB.91" depart="5308.30">
        <route edges="21-20 20-23 23-22 22-21"/>
    </vehicle>
    <vehicle id="flowA.92" depart="5366.64">
        <route edges="16-17 17-18 18-19 19-16"/>
    </vehicle>
    <vehicle id="flowB.92" depart="5366.64">
        <route edges="21-20 20-23 23-22 22-21"/>
    </vehicle>
    <vehicle id="flowA.93" depart="5424.97">
        <route edges="16-17 17-18 18-19 19-16"/>
    </vehicle>
    <vehicle id="flowB.93" depart="5424.97">
        <route edges="21-20 20-23 23-22 22-21"/>
    </vehicle>
    <vehicle id="flowA.94" depart="5483.30">
        <route edges="16-17 17-18 18-19 19-16"/>
    </vehicle>
    <vehicle id="flowB.94" depart="5483.30">
        <route edges="21-20 20-23 23-22 22-21"/>
    </vehicle>
    <vehicle id="flowA.95" depart="5541.64">
        <route edges="16-17 17-18 18-19 19-16"/>
    </vehicle>
    <vehicle id="flowB.95" depart="5541.64">
        <route edges="21-20 20-23 23-22 22-21"/>
    </vehicle>
    <vehicle id="flowA.96" depart="5599.97">
        <route edges="16-17 17-18 18-19 19-16"/>
    </vehicle>
    <vehicle id="flowB.96" depart="5599.97">
        <route edges="21-20 20-23 23-22 22-21"/>
    </vehicle>
    <vehicle id="flowA.97" depart="5658.30">
        <route edges="16-17 17-18 18-19 19-16"/>
    </vehicle>
    <vehicle id="flowB.97" depart="5658.30">
        <route edges="21-20 20-23 23-22 22-21"/>
    </vehicle>
    <vehicle id="flowA.98" depart="5716.63">
        <route edges="16-17 17-18 18-19 19-16"/>
    </vehicle>
    <vehicle id="flowB.98" depart="5716.63">
        <route edges="21-20 20-23 23-22 22-21"/>
    </vehicle>
    <vehicle id="flowA.99" depart="5774.97">
        <route edges="16-17 17-18 18-19 19-16"/>
    </vehicle>
    <vehicle id="flowB.99" depart="5774.97">
        <route edges="21-20 20-23 23-22 22-21"/>
    </vehicle>
    <vehicle id="flowA.100" depart="5833.30">
        <route edges="16-17 17-18 18-19 19-16"/>
    </vehicle>
    <vehicle id="flowB.100" depart="5833.30">
        <route edges="21-20 20-23 23-22 22-21"/>
    </vehicle>
    <vehicle id="flowA.101" depart="5891.63">
        <route edges="16-17 17-18 18-19 19-16"/>
    </vehicle>
    <vehicle id="flowB.101" depart="5891.63">
        <route edges="21-20 20-23 23-22 22-21"/>
    </vehicle>
    <vehicle id="flowA.102" depart="5949.97">
        <route edges="16-17 17-18 18-19 19-16"/>
    </vehicle>
    <vehicle id="flowB.102" depart="5949.97">
        <route edges="21-20 20-23 23-22 22-21"/>
    </vehicle>
    <vehicle id="flowA.103" depart="6008.30">
        <route edges="16-17 17-18 18-19 19-16"/>
    </vehicle>
    <vehicle id="flowB.103" depart="6008.30">
        <route edges="21-20 20-23 23-22 22-21"/>
    </vehicle>
    <vehicle id="flowA.104" depart="6066.63">
        <route edges="16-17 17-18 18-19 19-16"/>
    </vehicle>
    <vehicle id="flowB.104" depart="6066.63">
        <route edges="21-20 20-23 23-22 22-21"/>
    </vehicle>
    <vehicle id="flowA.105" depart="6124.97">
        <route edges="16-17 17-18 18-19 19-16"/>
    </vehicle>
    <vehicle id="flowB.105" depart="6124.97">
        <route edges="21-20 20-23 23-22 22-21"/>
    </vehicle>
    <vehicle id="flowA.106" depart="6183.30">
        <route edges="16-17 17-18 18-19 19-16"/>
    </vehicle>
    <vehicle id="flowB.106" depart="6183.30">
        <route edges="21-20 20-23 23-22 22-21"/>
    </vehicle>
    <vehicle id="flowA.107" depart="6241.63">
        <route edges="16-17 17-18 18-19 19-16"/>
    </vehicle>
    <vehicle id="flowB.107" depart="6241.63">
        <route edges="21-20 20-23 23-22 22-21"/>
    </vehicle>
    <vehicle id="flowA.108" depart="6299.96">
        <route edges="16-17 17-18 18-19 19-16"/>
    </vehicle>
    <vehicle id="flowB.108" depart="6299.96">
        <route edges="21-20 20-23 23-22 22-21"/>
    </vehicle>
    <vehicle id="flowA.109" depart="6358.30">
        <route edges="16-17 17-18 18-19 19-16"/>
    </vehicle>
    <vehicle id="flowB.109" depart="6358.30">
        <route edges="21-20 20-23 23-22 22-21"/>
    </vehicle>
    <vehicle id="flowA.110" depart="6416.63">
        <route edges="16-17 17-18 18-19 19-16"/>
    </vehicle>
    <vehicle id="flowB.110" depart="6416.63">
        <route edges="21-20 20-23 23-22 22-21"/>
    </vehicle>
    <vehicle id="flowA.111" depart="6474.96">
        <route edges="16-17 17-18 18-19 19-16"/>
    </vehicle>
    <vehicle id="flowB.111" depart="6474.96">
        <route edges="21-20 20-23 23-22 22-21"/>
    </vehicle>
    <vehicle id="flowA.112" depart="6533.30">
        <route edges="16-17 17-18 18-19 19-16"/>
    </vehicle>
    <vehicle id="flowB.112" depart="6533.30">
        <route edges="21-20 20-23 23-22 22-21"/>
    </vehicle>
    <vehicle id="flowA.113" depart="6591.63">
        <route edges="16-17 17-18 18-19 19-16"/>
    </vehicle>
    <vehicle id="flowB.113" depart="6591.63">
        <route edges="21-20 20-23 23-22 22-21"/>
    </vehicle>
    <vehicle id="flowA.114" depart="6649.96">
        <route edges="16-17 17-18 18-19 19-16"/>
    </vehicle>
    <vehicle id="flowB.114" depart="6649.96">
        <route edges="21-20 20-23 23-22 22-21"/>
    </vehicle>
    <vehicle id="flowA.115" depart="6708.30">
        <route edges="16-17 17-18 18-19 19-16"/>
    </vehicle>
    <vehicle id="flowB.115" depart="6708.30">
        <route edges="21-20 20-23 23-22 22-21"/>
    </vehicle>
    <vehicle id="flowA.116" depart="6766.63">
        <route edges="16-17 17-18 18-19 19-16"/>
    </vehicle>
    <vehicle id="flowB.116" depart="6766.63">
        <route edges="21-20 20-23 23-22 22-21"/>
    </vehicle>
    <vehicle id="flowA.117" depart="6824.96">
        <route edges="16-17 17-18 18-19 19-16"/>
    </vehicle>
    <vehicle id="flowB.117" depart="6824.96">
        <route edges="21-20 20-23 23-22 22-21"/>
    </vehicle>
    <vehicle id="flowA.118" depart="6883.29">
        <route edges="16-17 17-18 18-19 19-16"/>
    </vehicle>
    <vehicle id="flowB.118" depart="6883.29">
        <route edges="21-20 20-23 23-22 22-21"/>
    </vehicle>
    <vehicle id="flowA.119" depart="6941.63">
        <route edges="16-17 17-18 18-19 19-16"/>
    </vehicle>
    <vehicle id="flowB.119" depart="6941.63">
        <route edges="21-20 20-23 23-22 22-21"/>
    </vehicle>
</routes>
