<nodes>   
	<node id="1" x="-2000.0" y="1000.0" type="priority"/>  
	<node id="2" x="-1500.0" y="1000.0" type="priority"/>   
	<node id="3" x="-1000.0" y="1000.0" type="priority"/>   
	<node id="4" x="-500.0" y="1000.0" type="priority"/>   
	<node id="5" x="0.0" y="1000.0" type="priority"/>  
	<node id="6" x="500.0" y="1000.0" type="priority"/>  
	<node id="7" x="1000.0" y="1000.0" type="priority"/>  
	<node id="8" x="1500.0" y="1000.0" type="priority"/>  
	<node id="9" x="2000.0" y="1000.0" type="priority"/>
  
	<node id="10" x="2000.0" y="500.0" type="priority"/> 
	<node id="11" x="2000.0" y="0.0" type="priority"/> 
	<node id="12" x="2000.0" y="-500.0" type="priority"/> 
	<node id="13" x="2000.0" y="-1000.0" type="priority"/> 
	<node id="14" x="1500.0" y="-1000.0" type="priority"/> 
	<node id="15" x="1000.0" y="-1000.0" type="priority"/>  
	<node id="16" x="500.0" y="-1000.0" type="priority"/> 
	<node id="17" x="0.0" y="-1000.0" type="priority"/> 
	<node id="18" x="-500.0" y="-1000.0" type="priority"/> 
	<node id="19" x="-1000.0" y="-1000.0" type="priority"/>  
	<node id="20" x="-1500.0" y="-1000.0" type="priority"/> 
	<node id="21" x="-2000.0" y="-1000.0" type="priority"/> 

	<node id="22" x="-2000.0" y="-500.0" type="priority"/> 
	<node id="23" x="-2000.0" y="0.0" type="priority"/> 
	<node id="24" x="-2000.0" y="500.0" type="priority"/>
	<node id="25" x="-1500.0" y="500.0" type="priority"/>
	<node id="26" x="-1000.0" y="500.0" type="priority"/>
	<node id="27" x="-500.0" y="500.0" type="priority"/>

	<node id="28" x="0.0" y="500.0" type="priority"/>
	<node id="29" x="500.0" y="500.0" type="priority"/>
	<node id="30" x="1000.0" y="500.0" type="priority"/>
	<node id="31" x="1500.0" y="500.0" type="priority"/> 
	<node id="32" x="1500.0" y="0.0" type="priority"/> 
	<node id="33" x="1500.0" y="-500.0" type="priority"/>  

	<node id="34" x="1000.0" y="-500.0" type="priority"/>  
	<node id="35" x="500.0" y="-500.0" type="priority"/>  
	<node id="36" x="0.0" y="-500.0" type="priority"/>  
	<node id="37" x="-500.0" y="-500.0" type="priority"/> 
	<node id="38" x="-1000.0" y="-500.0" type="priority"/>  
	<node id="39" x="-1500.0" y="-500.0" type="priority"/>  
	<node id="40" x="-1500.0" y="0.0" type="priority"/>  
	<node id="41" x="-1000.0" y="0.0" type="priority"/>  
	<node id="42" x="-500.0" y="0.0" type="priority"/>  
	<node id="43" x="0.0" y="0.0" type="priority"/> 
	<node id="44" x="500.0" y="0.0" type="priority"/>  
	<node id="45" x="1000.0" y="0.0" type="priority"/>  

	<node id="46" x="-1800.0" y="800.0" type="priority"/>  
	<node id="47" x="1800.0" y="800.0" type="priority"/>  
	<node id="48" x="1800.0" y="200.0" type="priority"/>  
	<node id="49" x="-1300.0" y="200.0" type="priority"/>  
	<node id="50" x="-1300.0" y="-300.0" type="priority"/>  
	<node id="51" x="1800.0" y="-300.0" type="priority"/>  
	<node id="52" x="1800.0" y="-800.0" type="priority"/>  
	<node id="53" x="-1800.0" y="-800.0" type="priority"/>  
 
</nodes>

