<flows>
	<flow id="flowA" from="18-19" to="21-18" begin="0" end="7000" number="80"/>

</flows>
