<flows>
	<flow id="flowA" from="17-19" to="20-17" begin="0" end="7000" number="200"/>

</flows>
